Python/TCC/Rede/Master.dss
clear

Redirect subestacao.dss
Redirect linecodes.dss
Redirect lines.dss
Redirect loadshape.dss
Redirect loads.dss
Redirect capacitors.dss
Redirect transformer_sub.dss
Redirect transformer.dss
Redirect regulators.dss
Redirect switches.dss

Redirect tensao_base.dss

!Transformer.Reg1.Taps=[1.0 1.0625]
!Transformer.Reg2.Taps=[1.0 1.0500]
!Transformer.Reg3.Taps=[1.0 1.06875]
!Set Controlmode=OFF !N�o controla quantidade de itera��es
