Python/TCC/Rede/IEEE13barras_Curr_Seq.Txt

SYMMETRICAL COMPONENT CURRENTS BY CIRCUIT ELEMENT (first 3 phases)

Element                Term      I1         I2         %I2/I1    I0         %I0/I1   %Normal %Emergency

"VSOURCE.SOURCE" .....   1      10.031       1.7894    17.84  2.3842E-007     0.00      0.00     0.00
   -                     2      10.031       1.7894    17.84  2.3842E-007     0.00      0.00     0.00
"LINE.650632" ........   1      266.45       46.747    17.54      30.342    11.39     77.88    51.92
   -                     2      266.45       46.747    17.54      30.342    11.39      0.00     0.00
"LINE.632670" ........   1      176.03       79.237    45.01      48.897    27.78     59.95    39.96
   -                     2      176.04       79.237    45.01      48.897    27.78      0.00     0.00
"LINE.670671" ........   1       155.6       80.905    51.99      49.469    31.79     57.54    38.36
   -                     2       155.6       80.906    51.99      49.469    31.79      0.00     0.00
"LINE.671680" ........   1   0.0033892   0.00040234    11.87  5.9642E-005     1.76      0.00     0.00
   -                     2  4.1477E-012   6.9908E-013    16.85  1.3975E-012    33.69      0.00     0.00
"LINE.632633" ........   1      50.762       4.5557     8.97      4.8121     9.48     15.02    10.01
   -                     2      50.763       4.5557     8.97      4.8121     9.48      0.00     0.00
"LINE.632645" ........   1      48.652            0     0.00           0     0.00     12.16     8.11
   -                     2      48.653            0     0.00           0     0.00      0.00     0.00
"LINE.645646" ........   1      48.653            0     0.00           0     0.00     12.16     8.11
   -                     2      48.654            0     0.00           0     0.00      0.00     0.00
"LINE.692675" ........   1       93.73       32.476    34.65      48.863    52.13     37.92    25.28
   -                     2      93.722       32.476    34.65      48.862    52.14      0.00     0.00
"LINE.671684" ........   1      48.319            0     0.00           0     0.00     12.08     8.05
   -                     2      48.319            0     0.00           0     0.00      0.00     0.00
"LINE.684611" ........   1      55.529            0     0.00           0     0.00     13.88     9.25
   -                     2      55.528            0     0.00           0     0.00      0.00     0.00
"LINE.684652" ........   1      48.319            0     0.00           0     0.00     12.08     8.05
   -                     2      48.337            0     0.00           0     0.00      0.00     0.00
"CAPACITOR.CAP1" .....   1      85.042       1.1321     1.33        2.04     2.40      0.00     0.00
   -                     2      85.042       1.1321     1.33        2.04     2.40      0.00     0.00
"CAPACITOR.CAP2" .....   1        41.8            0     0.00           0     0.00      0.00     0.00
   -                     2        41.8            0     0.00           0     0.00      0.00     0.00
"TRANSFORMER.SUB" ....   1      10.031       1.7894    17.84  2.9105E-011     0.00     42.24    30.98
   -                     2      277.29       49.466    17.84      32.405    11.69      0.00     0.00
"TRANSFORMER.XFM1" ...   1      50.763       4.5557     8.97      4.8121     9.48     78.69    57.71
   -                     2      439.95       39.482     8.97      41.705     9.48      0.00     0.00
"TRANSFORMER.REGFASEA"   1      305.96            0     0.00           0     0.00     40.05    29.37
   -                     2      293.14            0     0.00           0     0.00      0.00     0.00
"TRANSFORMER.REGFASEB"   1      204.49            0     0.00           0     0.00     26.77    19.63
   -                     2      198.29            0     0.00           0     0.00      0.00     0.00
"TRANSFORMER.REGFASEC"   1      325.16            0     0.00           0     0.00     42.57    31.21
   -                     2      311.53            0     0.00           0     0.00      0.00     0.00
"LINE.671692" ........   1      105.83       52.213    49.34      48.863    46.17     40.88    27.25
   -                     2      105.83       52.213    49.34      48.863    46.17      0.00     0.00
"LOAD.671" ...........   1      24.049    0.0036615     0.02  4.0717E-015     0.00      0.00     0.00
"LOAD.634A" ..........   1      520.58            0     0.00           0     0.00      0.00     0.00
"LOAD.634B" ..........   1      396.84            0     0.00           0     0.00      0.00     0.00
"LOAD.634C" ..........   1      402.54            0     0.00           0     0.00      0.00     0.00
"LOAD.645" ...........   1      63.892            0     0.00           0     0.00      0.00     0.00
"LOAD.646" ...........   1      48.653            0     0.00           0     0.00      0.00     0.00
"LOAD.692" ...........   1      40.809            0     0.00           0     0.00      0.00     0.00
"LOAD.675A" ..........   1      160.61            0     0.00           0     0.00      0.00     0.00
"LOAD.675B" ..........   1      26.946            0     0.00           0     0.00      0.00     0.00
"LOAD.675C" ..........   1      111.26            0     0.00           0     0.00      0.00     0.00
"LOAD.611" ...........   1      58.449            0     0.00           0     0.00      0.00     0.00
"LOAD.652" ...........   1      48.336            0     0.00           0     0.00      0.00     0.00
"LOAD.670A" ..........   1      6.0053            0     0.00           0     0.00      0.00     0.00
"LOAD.670B" ..........   1      22.798            0     0.00           0     0.00      0.00     0.00
"LOAD.670C" ..........   1      41.493            0     0.00           0     0.00      0.00     0.00
"GENERATOR.GD_1" .....   1  0.00035177   4.3508E-006     1.24  7.9417E-006     2.26      0.00     0.00
"GENERATOR.GD_2" .....   1  1.2447E-005   8.1854E-015     0.00  8.0971E-016     0.00      0.00     0.00
