Python/TCC/Rede/IEEE13barras_Power_elem_kVA.txt

CIRCUIT ELEMENT POWER FLOW

(Power Flow into element from indicated Bus)

Power Delivery Elements

  Bus     Phase     kW     +j   kvar         kVA         PF

ELEMENT = "Vsource.SOURCE"
SOURCEBUS     1      -562.0 +j   -247.3      614.0       0.9153
SOURCEBUS     2      -712.9 +j    -86.0      718.1       0.9928
SOURCEBUS     3      -777.2 +j   -297.4      832.1       0.9340
   TERMINAL TOTAL . -2052.1 +j   -630.7     2146.8       0.9559
SOURCEBUS     0         0.0 +j      0.0        0.0       1.0000
SOURCEBUS     0         0.0 +j      0.0        0.0       1.0000
SOURCEBUS     0         0.0 +j      0.0        0.0       1.0000
   TERMINAL TOTAL .     0.0 +j      0.0        0.0       1.0000

ELEMENT = "Line.650632"
REG           1       732.8 +j    296.0      790.4       0.9272
REG           2       518.8 +j     74.9      524.2       0.9897
REG           3       800.4 +j    259.6      841.4       0.9512
   TERMINAL TOTAL .  2052.1 +j    630.6     2146.8       0.9559
632           1      -726.3 +j   -269.3      774.7       0.9376
632           2      -521.1 +j    -66.7      525.3       0.9919
632           3      -785.9 +j   -233.6      819.9       0.9585
   TERMINAL TOTAL . -2033.3 +j   -569.7     2111.6       0.9629

ELEMENT = "Line.632670"
632           1       596.4 +j    178.0      622.4       0.9582
632           2       157.8 +j   -109.2      191.8      -0.8223
632           3       624.8 +j     49.6      626.7       0.9969
   TERMINAL TOTAL .  1378.9 +j    118.5     1384.0       0.9963
670           1      -595.7 +j   -171.0      619.8       0.9612
670           2      -158.5 +j    109.7      192.8      -0.8222
670           3      -620.9 +j    -45.1      622.6       0.9974
   TERMINAL TOTAL . -1375.2 +j   -106.4     1379.3       0.9970

ELEMENT = "Line.670671"
670           1       582.1 +j    163.0      604.5       0.9630
670           2       105.7 +j   -140.2      175.5      -0.6020
670           3       527.2 +j     -9.4      527.3      -0.9998
   TERMINAL TOTAL .  1215.0 +j     13.5     1215.1       0.9999
671           1      -580.1 +j   -149.2      599.0       0.9685
671           2      -106.9 +j    141.9      177.6      -0.6018
671           3      -521.6 +j     14.6      521.8      -0.9996
   TERMINAL TOTAL . -1208.6 +j      7.3     1208.6      -1.0000

ELEMENT = "Line.671680"
671           1        -0.0 +j     -0.0        0.0       0.0977
671           2         0.0 +j     -0.0        0.0      -0.1506
671           3        -0.0 +j     -0.0        0.0       0.0631
   TERMINAL TOTAL .     0.0 +j     -0.0        0.0      -0.0000
680           1        -0.0 +j     -0.0        0.0       0.5480
680           2         0.0 +j      0.0        0.0       0.9701
680           3        -0.0 +j     -0.0        0.0       0.5854
   TERMINAL TOTAL .    -0.0 +j     -0.0        0.0       0.4643

ELEMENT = "Line.632633"
632           1       130.0 +j     91.3      158.8       0.8182
632           2        97.1 +j     73.9      122.1       0.7957
632           3        97.3 +j     74.0      122.2       0.7959
   TERMINAL TOTAL .   324.3 +j    239.2      403.0       0.8048
633           1      -129.7 +j    -91.0      158.5       0.8187
633           2       -97.0 +j    -73.8      121.9       0.7961
633           3       -97.1 +j    -73.8      121.9       0.7960
   TERMINAL TOTAL .  -323.8 +j   -238.6      402.2       0.8051

ELEMENT = "Line.632645"
632           3        63.9 +j    110.0      127.2       0.5022
632           2       266.2 +j    102.0      285.0       0.9338
   TERMINAL TOTAL .   330.1 +j    212.0      392.3       0.8414
645           3       -63.8 +j   -109.9      127.1       0.5018
645           2      -264.5 +j   -100.6      283.0       0.9347
   TERMINAL TOTAL .  -328.3 +j   -210.5      390.0       0.8419

ELEMENT = "Line.645646"
645           3        63.8 +j    109.9      127.1       0.5018
645           2       128.4 +j      0.4      128.4       1.0000
   TERMINAL TOTAL .   192.1 +j    110.3      221.6       0.8672
646           3       -63.6 +j   -109.8      126.8       0.5013
646           2      -128.2 +j     -0.3      128.2       1.0000
   TERMINAL TOTAL .  -191.8 +j   -110.1      221.1       0.8673

ELEMENT = "Line.692675"
692           1       390.5 +j    -48.5      393.5      -0.9924
692           2        55.2 +j   -173.0      181.6      -0.3041
692           3       232.5 +j    -29.7      234.4      -0.9920
   TERMINAL TOTAL .   678.2 +j   -251.1      723.2      -0.9378
675           1      -388.4 +j     49.7      391.6      -0.9919
675           2       -54.9 +j    173.4      181.9      -0.3017
675           3      -232.3 +j     29.6      234.1      -0.9920
   TERMINAL TOTAL .  -675.6 +j    252.7      721.3      -0.9366

ELEMENT = "Line.671684"
671           1       104.0 +j     69.7      125.2       0.8308
671           3       136.3 +j    -35.2      140.8      -0.9683
   TERMINAL TOTAL .   240.4 +j     34.5      242.8       0.9899
684           1      -103.9 +j    -69.6      125.0       0.8309
684           3      -136.1 +j     35.4      140.6      -0.9679
   TERMINAL TOTAL .  -240.0 +j    -34.2      242.4       0.9900

ELEMENT = "Line.684611"
684           3       136.1 +j    -35.4      140.6      -0.9679
   TERMINAL TOTAL .   136.1 +j    -35.4      140.6      -0.9679
611           3      -135.8 +j     35.6      140.4      -0.9673
   TERMINAL TOTAL .  -135.8 +j     35.6      140.4      -0.9673

ELEMENT = "Line.684652"
684           1       103.9 +j     69.6      125.0       0.8309
   TERMINAL TOTAL .   103.9 +j     69.6      125.0       0.8309
652           1      -103.3 +j    -69.4      124.5       0.8300
   TERMINAL TOTAL .  -103.3 +j    -69.4      124.5       0.8300

ELEMENT = "Capacitor.CAP1"
675           1         0.0 +j   -201.8      201.8       1.0000
675           2        -0.0 +j   -221.8      221.8       0.0000
675           3         0.0 +j   -199.4      199.4      -0.0000
   TERMINAL TOTAL .     0.0 +j   -623.0      623.0       1.0000
675           0         0.0 +j      0.0        0.0       1.0000
675           0         0.0 +j      0.0        0.0       1.0000
675           0         0.0 +j      0.0        0.0       1.0000
   TERMINAL TOTAL .     0.0 +j      0.0        0.0       1.0000

ELEMENT = "Capacitor.CAP2"
611           3         0.0 +j    -99.6       99.6       1.0000
   TERMINAL TOTAL .     0.0 +j    -99.6       99.6       1.0000
611           0         0.0 +j      0.0        0.0       1.0000
   TERMINAL TOTAL .     0.0 +j      0.0        0.0       1.0000

ELEMENT = "Transformer.SUB"
SOURCEBUS     1       562.0 +j    247.3      614.0       0.9153
SOURCEBUS     2       712.9 +j     86.0      718.1       0.9928
SOURCEBUS     3       777.2 +j    297.4      832.1       0.9340
SOURCEBUS     0         0.0 +j      0.0        0.0       1.0000
   TERMINAL TOTAL .  2052.1 +j    630.7     2146.8       0.9559
650           1      -732.8 +j   -296.1      790.4       0.9272
650           2      -518.8 +j    -74.9      524.2       0.9897
650           3      -800.4 +j   -259.6      841.5       0.9512
650           0         0.0 +j      0.0        0.0       1.0000
   TERMINAL TOTAL . -2052.1 +j   -630.7     2146.8       0.9559

ELEMENT = "Transformer.XFM1"
633           1       129.7 +j     91.0      158.5       0.8187
633           2        97.0 +j     73.8      121.9       0.7961
633           3        97.1 +j     73.8      121.9       0.7960
633           0         0.0 +j      0.0        0.0       1.0000
   TERMINAL TOTAL .   323.8 +j    238.6      402.2       0.8051
634           1      -128.1 +j    -88.1      155.5       0.8240
634           2       -96.1 +j    -72.1      120.1       0.8000
634           3       -96.1 +j    -72.1      120.1       0.8000
634           0         0.0 +j      0.0        0.0       1.0000
   TERMINAL TOTAL .  -320.4 +j   -232.3      395.7       0.8096

ELEMENT = "Transformer.REGFASEA"
650           1       732.8 +j    296.1      790.4       0.9272
650           0         0.0 +j      0.0        0.0       1.0000
   TERMINAL TOTAL .   732.8 +j    296.1      790.4       0.9272
REG           1      -732.8 +j   -296.0      790.4       0.9272
REG           0         0.0 +j      0.0        0.0       1.0000
   TERMINAL TOTAL .  -732.8 +j   -296.0      790.4       0.9272

ELEMENT = "Transformer.REGFASEB"
650           2       518.8 +j     74.9      524.2       0.9897
650           0         0.0 +j      0.0        0.0       1.0000
   TERMINAL TOTAL .   518.8 +j     74.9      524.2       0.9897
REG           2      -518.8 +j    -74.9      524.2       0.9897
REG           0         0.0 +j      0.0        0.0       1.0000
   TERMINAL TOTAL .  -518.8 +j    -74.9      524.2       0.9897

ELEMENT = "Transformer.REGFASEC"
650           3       800.4 +j    259.6      841.5       0.9512
650           0         0.0 +j      0.0        0.0       1.0000
   TERMINAL TOTAL .   800.4 +j    259.6      841.5       0.9512
REG           3      -800.4 +j   -259.6      841.4       0.9512
REG           0         0.0 +j      0.0        0.0       1.0000
   TERMINAL TOTAL .  -800.4 +j   -259.6      841.4       0.9512

ELEMENT = "Line.671692"
671           1       425.2 +j     51.9      428.3       0.9926
671           2        55.2 +j   -173.0      181.6      -0.3041
671           3       335.3 +j     -7.8      335.4      -0.9997
   TERMINAL TOTAL .   815.8 +j   -128.9      825.9      -0.9877
692           1      -425.2 +j    -51.8      428.3       0.9927
692           2       -55.2 +j    173.0      181.6      -0.3041
692           3      -335.3 +j      7.8      335.4      -0.9997
   TERMINAL TOTAL .  -815.7 +j    128.9      825.8      -0.9877

= = = = = = = = = = = = = = = = = = =  = = = = = = = = = = =  = =

Power Conversion Elements

  Bus     Phase     kW   +j  kvar         kVA         PF

ELEMENT = "Load.671"
671           1      50.9 +j   27.7       57.9       0.8786
671           2      51.7 +j   31.1       60.3       0.8568
671           3      49.9 +j   28.4       57.4       0.8694
  TERMINAL TOTAL  .   152.5 +j     87.1      175.6       0.8682

ELEMENT = "Load.634A"
634           1     128.1 +j   88.1      155.5       0.8240
634           0       0.0 +j    0.0        0.0       1.0000
  TERMINAL TOTAL  .   128.1 +j     88.1      155.5       0.8240

ELEMENT = "Load.634B"
634           2      96.1 +j   72.1      120.1       0.8000
634           0       0.0 +j    0.0        0.0       1.0000
  TERMINAL TOTAL  .    96.1 +j     72.1      120.1       0.8000

ELEMENT = "Load.634C"
634           3      96.1 +j   72.1      120.1       0.8000
634           0       0.0 +j    0.0        0.0       1.0000
  TERMINAL TOTAL  .    96.1 +j     72.1      120.1       0.8000

ELEMENT = "Load.645"
645           2     136.2 +j  100.1      169.0       0.8057
645           0       0.0 +j    0.0        0.0       1.0000
  TERMINAL TOTAL  .   136.2 +j    100.1      169.0       0.8057

ELEMENT = "Load.646"
646           2     128.2 +j    0.3      128.2       1.0000
646           3      63.6 +j  109.8      126.8       0.5013
  TERMINAL TOTAL  .   191.8 +j    110.1      221.1       0.8673

ELEMENT = "Load.692"
692           3     102.8 +j   21.8      105.1       0.9782
692           1      34.7 +j  100.3      106.1       0.3270
  TERMINAL TOTAL  .   137.5 +j    122.1      183.9       0.7477

ELEMENT = "Load.675A"
675           1     388.4 +j  152.2      417.2       0.9311
675           0       0.0 +j    0.0        0.0       1.0000
  TERMINAL TOTAL  .   388.4 +j    152.2      417.2       0.9311

ELEMENT = "Load.675B"
675           2      54.9 +j   48.4       73.2       0.7498
675           0       0.0 +j    0.0        0.0       1.0000
  TERMINAL TOTAL  .    54.9 +j     48.4       73.2       0.7498

ELEMENT = "Load.675C"
675           3     232.3 +j  169.8      287.7       0.8073
675           0       0.0 +j    0.0        0.0       1.0000
  TERMINAL TOTAL  .   232.3 +j    169.8      287.7       0.8073

ELEMENT = "Load.611"
611           3     135.8 +j   63.9      150.1       0.9048
611           0       0.0 +j    0.0        0.0       1.0000
  TERMINAL TOTAL  .   135.8 +j     63.9      150.1       0.9048

ELEMENT = "Load.652"
652           1     103.3 +j   69.4      124.5       0.8300
652           0       0.0 +j    0.0        0.0       1.0000
  TERMINAL TOTAL  .   103.3 +j     69.4      124.5       0.8300

ELEMENT = "Load.670A"
670           1      13.6 +j    8.0       15.8       0.8619
670           0       0.0 +j    0.0        0.0       1.0000
  TERMINAL TOTAL  .    13.6 +j      8.0       15.8       0.8619

ELEMENT = "Load.670B"
670           2      52.9 +j   30.4       61.0       0.8666
670           0       0.0 +j    0.0        0.0       1.0000
  TERMINAL TOTAL  .    52.9 +j     30.4       61.0       0.8666

ELEMENT = "Load.670C"
670           3      93.7 +j   54.5      108.4       0.8646
670           0       0.0 +j    0.0        0.0       1.0000
  TERMINAL TOTAL  .    93.7 +j     54.5      108.4       0.8646

ELEMENT = "Generator.GD_1"
REG           1      -0.0 +j   -0.0        0.0       0.0000
REG           2       0.0 +j   -0.0        0.0      -0.0000
REG           3      -0.0 +j   -0.0        0.0       0.0000
REG           0       0.0 +j    0.0        0.0       1.0000
  TERMINAL TOTAL  .    -0.0 +j     -0.0        0.0       0.0000

ELEMENT = "Generator.GD_2"
645           2       0.0 +j   -0.0        0.0      -0.0000
645           3      -0.0 +j   -0.0        0.0       0.0000
645           0       0.0 +j    0.0        0.0       1.0000
  TERMINAL TOTAL  .    -0.0 +j     -0.0        0.0       0.0000


Total Circuit Losses =   38.9 +j  105.0
