Python/TCC/Rede/IEEE13barras_VLN_Node.Txt

LINE-GROUND and LINE-LINE VOLTAGES BY BUS & NODE

Bus       Node    VLN (kV)   Angle      pu     Base kV    Node-Node   VLL (kV)  Angle      pu

SOURCEBUS 1       66.395 /_   30.0         1   115.000        1-2        115 /_   60.0         1
   -      2       66.395 /_  -90.0         1   115.000        2-3        115 /_  -60.0         1
   -      3       66.395 /_  150.0         1   115.000        3-1        115 /_  180.0         1
REG ..... 1       2.5068 /_    0.0    1.0437     4.160        1-2     4.3159 /_   29.8    1.0375
   -      2       2.4768 /_ -120.0    1.0312     4.160        2-3     4.3159 /_  -89.8    1.0375
   -      3       2.5068 /_  120.0    1.0437     4.160        3-1     4.3418 /_  150.0    1.0437
632 ..... 1       2.4569 /_   -1.7    1.0229     4.160        1-2     4.2613 /_   28.9    1.0244
   -      2        2.482 /_ -120.9    1.0334     4.160        2-3     4.2754 /_  -91.4    1.0277
   -      3       2.4426 /_  118.6     1.017     4.160        3-1     4.2482 /_  148.6    1.0212
670 ..... 1       2.4466 /_   -2.3    1.0187     4.160        1-2     4.2504 /_   28.7    1.0217
   -      2       2.4945 /_ -120.9    1.0386     4.160        2-3     4.2803 /_  -91.8    1.0289
   -      3       2.4263 /_  118.2    1.0102     4.160        3-1     4.2297 /_  148.1    1.0168
671 ..... 1       2.4243 /_   -3.5    1.0094     4.160        1-2     4.2302 /_   28.5    1.0169
   -      2       2.5243 /_ -120.9     1.051     4.160        2-3     4.2966 /_  -92.5    1.0328
   -      3       2.4009 /_  117.6   0.99965     4.160        3-1     4.2015 /_  147.2      1.01
680 ..... 1       2.4243 /_   -3.5    1.0094     4.160        1-2     4.2302 /_   28.5    1.0169
   -      2       2.5243 /_ -120.9     1.051     4.160        2-3     4.2966 /_  -92.5    1.0328
   -      3       2.4009 /_  117.6   0.99965     4.160        3-1     4.2015 /_  147.2      1.01
633 ..... 1       2.4511 /_   -1.7    1.0205     4.160        1-2     4.2528 /_   28.8    1.0223
   -      2       2.4783 /_ -121.0    1.0319     4.160        2-3     4.2672 /_  -91.5    1.0258
   -      3       2.4376 /_  118.6    1.0149     4.160        3-1     4.2399 /_  148.5    1.0192
645 ..... 2       2.4643 /_ -121.1     1.026     4.160        2-3     4.2531 /_  -91.4    1.0224
   -      3       2.4388 /_  118.6    1.0154     4.160
646 ..... 2        2.461 /_ -121.1    1.0247     4.160        2-3     4.2448 /_  -91.4    1.0204
   -      3       2.4349 /_  118.6    1.0138     4.160
692 ..... 1       2.4241 /_   -3.5    1.0093     4.160        1-2     4.2301 /_   28.5    1.0168
   -      2       2.5243 /_ -121.0     1.051     4.160        2-3     4.2965 /_  -92.5    1.0328
   -      3       2.4008 /_  117.6    0.9996     4.160        3-1     4.2012 /_  147.2    1.0099
675 ..... 1       2.4127 /_   -3.7    1.0046     4.160        1-2     4.2232 /_   28.4    1.0152
   -      2       2.5293 /_ -121.1    1.0531     4.160        2-3     4.2956 /_  -92.6    1.0326
   -      3       2.3981 /_  117.6   0.99849     4.160        3-1     4.1933 /_  147.0     1.008
684 ..... 1       2.4205 /_   -3.5    1.0078     4.160
   -      3       2.3978 /_  117.5   0.99833     4.160        3-1     4.1937 /_  147.2    1.0081
611 ..... 3       2.3946 /_  117.4   0.99701     4.160
652 ..... 1       2.4096 /_   -3.4    1.0033     4.160
634 ..... 1      0.27754 /_   -2.2    1.0015     0.480        1-2    0.48222 /_   28.5    1.0046
   -      2      0.28187 /_ -121.3    1.0171     0.480        2-3    0.48523 /_  -91.8    1.0109
   -      3       0.2771 /_  118.2   0.99989     0.480        3-1     0.4814 /_  148.0    1.0029
650 ..... 1       2.4017 /_    0.0   0.99998     4.160        1-2     4.1599 /_   30.0   0.99998
   -      2       2.4018 /_ -120.0   0.99999     4.160        2-3       4.16 /_  -90.0   0.99999
   -      3       2.4017 /_  120.0   0.99998     4.160        3-1     4.1599 /_  150.0   0.99998
